version 2
run WhiteRabbitSwitch2-0-20120113-12:12:49-1236
attr configname WhiteRabbitSwitch2
attr datetime 20120113-12:12:49
attr experiment WhiteRabbitSwitch2
attr inifile omnetpp.ini
attr iterationvars ""
attr iterationvars2 $repetition=0
attr measurement ""
attr network WhiteRabbitSwitch2
attr processid 1236
attr repetition 0
attr replication #0
attr resultdir results
attr runnumber 0
attr seedset 0

scalar WhiteRabbitSwitch2.in 	created:count 	1
attr interpolationmode  none
attr title  "the number of jobs created, count"
scalar WhiteRabbitSwitch2.in1 	created:count 	1
attr interpolationmode  none
attr title  "the number of jobs created, count"
scalar WhiteRabbitSwitch2.in2 	created:count 	1
attr interpolationmode  none
attr title  "the number of jobs created, count"
scalar WhiteRabbitSwitch2.in3 	created:count 	1
attr interpolationmode  none
attr title  "the number of jobs created, count"
scalar WhiteRabbitSwitch2.in4 	created:count 	1
attr interpolationmode  none
attr title  "the number of jobs created, count"
scalar WhiteRabbitSwitch2.in5 	created:count 	1
attr interpolationmode  none
attr title  "the number of jobs created, count"
scalar WhiteRabbitSwitch2.in6 	created:count 	1
attr interpolationmode  none
attr title  "the number of jobs created, count"
scalar WhiteRabbitSwitch2.in7 	created:count 	1
attr interpolationmode  none
attr title  "the number of jobs created, count"
scalar WhiteRabbitSwitch2.out 	generation:mean 	0
attr interpolationmode  none
attr title  "the generation of the arrived jobs, mean"
scalar WhiteRabbitSwitch2.out 	generation:max 	0
attr interpolationmode  none
attr title  "the generation of the arrived jobs, max"
scalar WhiteRabbitSwitch2.out 	delaysVisited:mean 	0
attr interpolationmode  none
attr title  "the total number of delays visited by arrived jobs, mean"
scalar WhiteRabbitSwitch2.out 	delaysVisited:max 	0
attr interpolationmode  none
attr title  "the total number of delays visited by arrived jobs, max"
scalar WhiteRabbitSwitch2.out 	queuesVisited:mean 	0
attr interpolationmode  none
attr title  "the total number of queues visited by arrived jobs, mean"
scalar WhiteRabbitSwitch2.out 	queuesVisited:max 	0
attr interpolationmode  none
attr title  "the total number of queues visited by arrived jobs, max"
scalar WhiteRabbitSwitch2.out 	totalServiceTime:mean 	0
attr interpolationmode  none
attr title  "the total time spent  by arrived jobs, mean"
attr unit  s
scalar WhiteRabbitSwitch2.out 	totalServiceTime:max 	0
attr interpolationmode  none
attr title  "the total time spent  by arrived jobs, max"
attr unit  s
scalar WhiteRabbitSwitch2.out 	totalDelayTime:mean 	0
attr interpolationmode  none
attr title  "the total time spent in delay nodes by arrived jobs, mean"
attr unit  s
scalar WhiteRabbitSwitch2.out 	totalDelayTime:max 	0
attr interpolationmode  none
attr title  "the total time spent in delay nodes by arrived jobs, max"
attr unit  s
scalar WhiteRabbitSwitch2.out 	totalQueueingTime:mean 	0
attr interpolationmode  none
attr title  "the total time spent in queues by arrived jobs, mean"
attr unit  s
scalar WhiteRabbitSwitch2.out 	totalQueueingTime:max 	0
attr interpolationmode  none
attr title  "the total time spent in queues by arrived jobs, max"
attr unit  s
scalar WhiteRabbitSwitch2.out 	lifeTime:mean 	0
attr interpolationmode  none
attr title  "lifetime of arrived jobs, mean"
attr unit  s
scalar WhiteRabbitSwitch2.out 	lifeTime:max 	0
attr interpolationmode  none
attr title  "lifetime of arrived jobs, max"
attr unit  s
scalar WhiteRabbitSwitch2.wrQueue 	busy:timeavg 	0.57150298341807
attr interpolationmode  sample-hold
attr title  "server busy state, timeavg"
scalar WhiteRabbitSwitch2.wrQueue 	queueingTime:mean 	21.835781095825
attr interpolationmode  none
attr title  "queueing time at dequeue, mean"
attr unit  s
scalar WhiteRabbitSwitch2.wrQueue 	queueingTime:max 	42.723723633573
attr interpolationmode  none
attr title  "queueing time at dequeue, max"
attr unit  s
scalar WhiteRabbitSwitch2.wrQueue 	queueLength:timeavg 	1.6566957293688
attr interpolationmode  sample-hold
attr title  "queue length, timeavg"
scalar WhiteRabbitSwitch2.wrQueue 	queueLength:max 	6
attr interpolationmode  sample-hold
attr title  "queue length, max"
scalar WhiteRabbitSwitch2.wrQueue 	dropped:count 	0
attr interpolationmode  none
attr title  "drop event, count"
