version 2
run WhiteRabbitSwitch6-0-20120123-16:14:01-9992
attr configname WhiteRabbitSwitch6
attr datetime 20120123-16:14:01
attr experiment WhiteRabbitSwitch6
attr inifile omnetpp.ini
attr iterationvars ""
attr iterationvars2 $repetition=0
attr measurement ""
attr network WhiteRabbitSwitch6
attr processid 9992
attr repetition 0
attr replication #0
attr resultdir results
attr runnumber 0
attr seedset 0

scalar WhiteRabbitSwitch6.out0 	generation:mean 	nan
attr interpolationmode  none
attr title  "the generation of the arrived jobs, mean"
scalar WhiteRabbitSwitch6.out0 	generation:max 	nan
attr interpolationmode  none
attr title  "the generation of the arrived jobs, max"
scalar WhiteRabbitSwitch6.out0 	delaysVisited:mean 	nan
attr interpolationmode  none
attr title  "the total number of delays visited by arrived jobs, mean"
scalar WhiteRabbitSwitch6.out0 	delaysVisited:max 	nan
attr interpolationmode  none
attr title  "the total number of delays visited by arrived jobs, max"
scalar WhiteRabbitSwitch6.out0 	queuesVisited:mean 	nan
attr interpolationmode  none
attr title  "the total number of queues visited by arrived jobs, mean"
scalar WhiteRabbitSwitch6.out0 	queuesVisited:max 	nan
attr interpolationmode  none
attr title  "the total number of queues visited by arrived jobs, max"
scalar WhiteRabbitSwitch6.out0 	totalServiceTime:mean 	nan
attr interpolationmode  none
attr title  "the total time spent  by arrived jobs, mean"
attr unit  s
scalar WhiteRabbitSwitch6.out0 	totalServiceTime:max 	nan
attr interpolationmode  none
attr title  "the total time spent  by arrived jobs, max"
attr unit  s
scalar WhiteRabbitSwitch6.out0 	totalDelayTime:mean 	nan
attr interpolationmode  none
attr title  "the total time spent in delay nodes by arrived jobs, mean"
attr unit  s
scalar WhiteRabbitSwitch6.out0 	totalDelayTime:max 	nan
attr interpolationmode  none
attr title  "the total time spent in delay nodes by arrived jobs, max"
attr unit  s
scalar WhiteRabbitSwitch6.out0 	totalQueueingTime:mean 	nan
attr interpolationmode  none
attr title  "the total time spent in queues by arrived jobs, mean"
attr unit  s
scalar WhiteRabbitSwitch6.out0 	totalQueueingTime:max 	nan
attr interpolationmode  none
attr title  "the total time spent in queues by arrived jobs, max"
attr unit  s
scalar WhiteRabbitSwitch6.out0 	lifeTime:mean 	nan
attr interpolationmode  none
attr title  "lifetime of arrived jobs, mean"
attr unit  s
scalar WhiteRabbitSwitch6.out0 	lifeTime:max 	nan
attr interpolationmode  none
attr title  "lifetime of arrived jobs, max"
attr unit  s
scalar WhiteRabbitSwitch6.wrQueue0 	busy:timeavg 	0
attr interpolationmode  sample-hold
attr title  "server busy state, timeavg"
scalar WhiteRabbitSwitch6.wrQueue0 	queueingTime:mean 	0
attr interpolationmode  none
attr title  "queueing time at dequeue, mean"
attr unit  s
scalar WhiteRabbitSwitch6.wrQueue0 	queueingTime:max 	0
attr interpolationmode  none
attr title  "queueing time at dequeue, max"
attr unit  s
scalar WhiteRabbitSwitch6.wrQueue0 	queueLength:timeavg 	0
attr interpolationmode  sample-hold
attr title  "queue length, timeavg"
scalar WhiteRabbitSwitch6.wrQueue0 	queueLength:max 	2
attr interpolationmode  sample-hold
attr title  "queue length, max"
scalar WhiteRabbitSwitch6.wrQueue0 	dropped:count 	0
attr interpolationmode  none
attr title  "drop event, count"
scalar WhiteRabbitSwitch6.out1 	generation:mean 	nan
attr interpolationmode  none
attr title  "the generation of the arrived jobs, mean"
scalar WhiteRabbitSwitch6.out1 	generation:max 	nan
attr interpolationmode  none
attr title  "the generation of the arrived jobs, max"
scalar WhiteRabbitSwitch6.out1 	delaysVisited:mean 	nan
attr interpolationmode  none
attr title  "the total number of delays visited by arrived jobs, mean"
scalar WhiteRabbitSwitch6.out1 	delaysVisited:max 	nan
attr interpolationmode  none
attr title  "the total number of delays visited by arrived jobs, max"
scalar WhiteRabbitSwitch6.out1 	queuesVisited:mean 	nan
attr interpolationmode  none
attr title  "the total number of queues visited by arrived jobs, mean"
scalar WhiteRabbitSwitch6.out1 	queuesVisited:max 	nan
attr interpolationmode  none
attr title  "the total number of queues visited by arrived jobs, max"
scalar WhiteRabbitSwitch6.out1 	totalServiceTime:mean 	nan
attr interpolationmode  none
attr title  "the total time spent  by arrived jobs, mean"
attr unit  s
scalar WhiteRabbitSwitch6.out1 	totalServiceTime:max 	nan
attr interpolationmode  none
attr title  "the total time spent  by arrived jobs, max"
attr unit  s
scalar WhiteRabbitSwitch6.out1 	totalDelayTime:mean 	nan
attr interpolationmode  none
attr title  "the total time spent in delay nodes by arrived jobs, mean"
attr unit  s
scalar WhiteRabbitSwitch6.out1 	totalDelayTime:max 	nan
attr interpolationmode  none
attr title  "the total time spent in delay nodes by arrived jobs, max"
attr unit  s
scalar WhiteRabbitSwitch6.out1 	totalQueueingTime:mean 	nan
attr interpolationmode  none
attr title  "the total time spent in queues by arrived jobs, mean"
attr unit  s
scalar WhiteRabbitSwitch6.out1 	totalQueueingTime:max 	nan
attr interpolationmode  none
attr title  "the total time spent in queues by arrived jobs, max"
attr unit  s
scalar WhiteRabbitSwitch6.out1 	lifeTime:mean 	nan
attr interpolationmode  none
attr title  "lifetime of arrived jobs, mean"
attr unit  s
scalar WhiteRabbitSwitch6.out1 	lifeTime:max 	nan
attr interpolationmode  none
attr title  "lifetime of arrived jobs, max"
attr unit  s
scalar WhiteRabbitSwitch6.out2 	generation:mean 	nan
attr interpolationmode  none
attr title  "the generation of the arrived jobs, mean"
scalar WhiteRabbitSwitch6.out2 	generation:max 	nan
attr interpolationmode  none
attr title  "the generation of the arrived jobs, max"
scalar WhiteRabbitSwitch6.out2 	delaysVisited:mean 	nan
attr interpolationmode  none
attr title  "the total number of delays visited by arrived jobs, mean"
scalar WhiteRabbitSwitch6.out2 	delaysVisited:max 	nan
attr interpolationmode  none
attr title  "the total number of delays visited by arrived jobs, max"
scalar WhiteRabbitSwitch6.out2 	queuesVisited:mean 	nan
attr interpolationmode  none
attr title  "the total number of queues visited by arrived jobs, mean"
scalar WhiteRabbitSwitch6.out2 	queuesVisited:max 	nan
attr interpolationmode  none
attr title  "the total number of queues visited by arrived jobs, max"
scalar WhiteRabbitSwitch6.out2 	totalServiceTime:mean 	nan
attr interpolationmode  none
attr title  "the total time spent  by arrived jobs, mean"
attr unit  s
scalar WhiteRabbitSwitch6.out2 	totalServiceTime:max 	nan
attr interpolationmode  none
attr title  "the total time spent  by arrived jobs, max"
attr unit  s
scalar WhiteRabbitSwitch6.out2 	totalDelayTime:mean 	nan
attr interpolationmode  none
attr title  "the total time spent in delay nodes by arrived jobs, mean"
attr unit  s
scalar WhiteRabbitSwitch6.out2 	totalDelayTime:max 	nan
attr interpolationmode  none
attr title  "the total time spent in delay nodes by arrived jobs, max"
attr unit  s
scalar WhiteRabbitSwitch6.out2 	totalQueueingTime:mean 	nan
attr interpolationmode  none
attr title  "the total time spent in queues by arrived jobs, mean"
attr unit  s
scalar WhiteRabbitSwitch6.out2 	totalQueueingTime:max 	nan
attr interpolationmode  none
attr title  "the total time spent in queues by arrived jobs, max"
attr unit  s
scalar WhiteRabbitSwitch6.out2 	lifeTime:mean 	nan
attr interpolationmode  none
attr title  "lifetime of arrived jobs, mean"
attr unit  s
scalar WhiteRabbitSwitch6.out2 	lifeTime:max 	nan
attr interpolationmode  none
attr title  "lifetime of arrived jobs, max"
attr unit  s
scalar WhiteRabbitSwitch6.out3 	generation:mean 	nan
attr interpolationmode  none
attr title  "the generation of the arrived jobs, mean"
scalar WhiteRabbitSwitch6.out3 	generation:max 	nan
attr interpolationmode  none
attr title  "the generation of the arrived jobs, max"
scalar WhiteRabbitSwitch6.out3 	delaysVisited:mean 	nan
attr interpolationmode  none
attr title  "the total number of delays visited by arrived jobs, mean"
scalar WhiteRabbitSwitch6.out3 	delaysVisited:max 	nan
attr interpolationmode  none
attr title  "the total number of delays visited by arrived jobs, max"
scalar WhiteRabbitSwitch6.out3 	queuesVisited:mean 	nan
attr interpolationmode  none
attr title  "the total number of queues visited by arrived jobs, mean"
scalar WhiteRabbitSwitch6.out3 	queuesVisited:max 	nan
attr interpolationmode  none
attr title  "the total number of queues visited by arrived jobs, max"
scalar WhiteRabbitSwitch6.out3 	totalServiceTime:mean 	nan
attr interpolationmode  none
attr title  "the total time spent  by arrived jobs, mean"
attr unit  s
scalar WhiteRabbitSwitch6.out3 	totalServiceTime:max 	nan
attr interpolationmode  none
attr title  "the total time spent  by arrived jobs, max"
attr unit  s
scalar WhiteRabbitSwitch6.out3 	totalDelayTime:mean 	nan
attr interpolationmode  none
attr title  "the total time spent in delay nodes by arrived jobs, mean"
attr unit  s
scalar WhiteRabbitSwitch6.out3 	totalDelayTime:max 	nan
attr interpolationmode  none
attr title  "the total time spent in delay nodes by arrived jobs, max"
attr unit  s
scalar WhiteRabbitSwitch6.out3 	totalQueueingTime:mean 	nan
attr interpolationmode  none
attr title  "the total time spent in queues by arrived jobs, mean"
attr unit  s
scalar WhiteRabbitSwitch6.out3 	totalQueueingTime:max 	nan
attr interpolationmode  none
attr title  "the total time spent in queues by arrived jobs, max"
attr unit  s
scalar WhiteRabbitSwitch6.out3 	lifeTime:mean 	nan
attr interpolationmode  none
attr title  "lifetime of arrived jobs, mean"
attr unit  s
scalar WhiteRabbitSwitch6.out3 	lifeTime:max 	nan
attr interpolationmode  none
attr title  "lifetime of arrived jobs, max"
attr unit  s
scalar WhiteRabbitSwitch6.out4 	generation:mean 	nan
attr interpolationmode  none
attr title  "the generation of the arrived jobs, mean"
scalar WhiteRabbitSwitch6.out4 	generation:max 	nan
attr interpolationmode  none
attr title  "the generation of the arrived jobs, max"
scalar WhiteRabbitSwitch6.out4 	delaysVisited:mean 	nan
attr interpolationmode  none
attr title  "the total number of delays visited by arrived jobs, mean"
scalar WhiteRabbitSwitch6.out4 	delaysVisited:max 	nan
attr interpolationmode  none
attr title  "the total number of delays visited by arrived jobs, max"
scalar WhiteRabbitSwitch6.out4 	queuesVisited:mean 	nan
attr interpolationmode  none
attr title  "the total number of queues visited by arrived jobs, mean"
scalar WhiteRabbitSwitch6.out4 	queuesVisited:max 	nan
attr interpolationmode  none
attr title  "the total number of queues visited by arrived jobs, max"
scalar WhiteRabbitSwitch6.out4 	totalServiceTime:mean 	nan
attr interpolationmode  none
attr title  "the total time spent  by arrived jobs, mean"
attr unit  s
scalar WhiteRabbitSwitch6.out4 	totalServiceTime:max 	nan
attr interpolationmode  none
attr title  "the total time spent  by arrived jobs, max"
attr unit  s
scalar WhiteRabbitSwitch6.out4 	totalDelayTime:mean 	nan
attr interpolationmode  none
attr title  "the total time spent in delay nodes by arrived jobs, mean"
attr unit  s
scalar WhiteRabbitSwitch6.out4 	totalDelayTime:max 	nan
attr interpolationmode  none
attr title  "the total time spent in delay nodes by arrived jobs, max"
attr unit  s
scalar WhiteRabbitSwitch6.out4 	totalQueueingTime:mean 	nan
attr interpolationmode  none
attr title  "the total time spent in queues by arrived jobs, mean"
attr unit  s
scalar WhiteRabbitSwitch6.out4 	totalQueueingTime:max 	nan
attr interpolationmode  none
attr title  "the total time spent in queues by arrived jobs, max"
attr unit  s
scalar WhiteRabbitSwitch6.out4 	lifeTime:mean 	nan
attr interpolationmode  none
attr title  "lifetime of arrived jobs, mean"
attr unit  s
scalar WhiteRabbitSwitch6.out4 	lifeTime:max 	nan
attr interpolationmode  none
attr title  "lifetime of arrived jobs, max"
attr unit  s
scalar WhiteRabbitSwitch6.out5 	generation:mean 	nan
attr interpolationmode  none
attr title  "the generation of the arrived jobs, mean"
scalar WhiteRabbitSwitch6.out5 	generation:max 	nan
attr interpolationmode  none
attr title  "the generation of the arrived jobs, max"
scalar WhiteRabbitSwitch6.out5 	delaysVisited:mean 	nan
attr interpolationmode  none
attr title  "the total number of delays visited by arrived jobs, mean"
scalar WhiteRabbitSwitch6.out5 	delaysVisited:max 	nan
attr interpolationmode  none
attr title  "the total number of delays visited by arrived jobs, max"
scalar WhiteRabbitSwitch6.out5 	queuesVisited:mean 	nan
attr interpolationmode  none
attr title  "the total number of queues visited by arrived jobs, mean"
scalar WhiteRabbitSwitch6.out5 	queuesVisited:max 	nan
attr interpolationmode  none
attr title  "the total number of queues visited by arrived jobs, max"
scalar WhiteRabbitSwitch6.out5 	totalServiceTime:mean 	nan
attr interpolationmode  none
attr title  "the total time spent  by arrived jobs, mean"
attr unit  s
scalar WhiteRabbitSwitch6.out5 	totalServiceTime:max 	nan
attr interpolationmode  none
attr title  "the total time spent  by arrived jobs, max"
attr unit  s
scalar WhiteRabbitSwitch6.out5 	totalDelayTime:mean 	nan
attr interpolationmode  none
attr title  "the total time spent in delay nodes by arrived jobs, mean"
attr unit  s
scalar WhiteRabbitSwitch6.out5 	totalDelayTime:max 	nan
attr interpolationmode  none
attr title  "the total time spent in delay nodes by arrived jobs, max"
attr unit  s
scalar WhiteRabbitSwitch6.out5 	totalQueueingTime:mean 	nan
attr interpolationmode  none
attr title  "the total time spent in queues by arrived jobs, mean"
attr unit  s
scalar WhiteRabbitSwitch6.out5 	totalQueueingTime:max 	nan
attr interpolationmode  none
attr title  "the total time spent in queues by arrived jobs, max"
attr unit  s
scalar WhiteRabbitSwitch6.out5 	lifeTime:mean 	nan
attr interpolationmode  none
attr title  "lifetime of arrived jobs, mean"
attr unit  s
scalar WhiteRabbitSwitch6.out5 	lifeTime:max 	nan
attr interpolationmode  none
attr title  "lifetime of arrived jobs, max"
attr unit  s
scalar WhiteRabbitSwitch6.out6 	generation:mean 	nan
attr interpolationmode  none
attr title  "the generation of the arrived jobs, mean"
scalar WhiteRabbitSwitch6.out6 	generation:max 	nan
attr interpolationmode  none
attr title  "the generation of the arrived jobs, max"
scalar WhiteRabbitSwitch6.out6 	delaysVisited:mean 	nan
attr interpolationmode  none
attr title  "the total number of delays visited by arrived jobs, mean"
scalar WhiteRabbitSwitch6.out6 	delaysVisited:max 	nan
attr interpolationmode  none
attr title  "the total number of delays visited by arrived jobs, max"
scalar WhiteRabbitSwitch6.out6 	queuesVisited:mean 	nan
attr interpolationmode  none
attr title  "the total number of queues visited by arrived jobs, mean"
scalar WhiteRabbitSwitch6.out6 	queuesVisited:max 	nan
attr interpolationmode  none
attr title  "the total number of queues visited by arrived jobs, max"
scalar WhiteRabbitSwitch6.out6 	totalServiceTime:mean 	nan
attr interpolationmode  none
attr title  "the total time spent  by arrived jobs, mean"
attr unit  s
scalar WhiteRabbitSwitch6.out6 	totalServiceTime:max 	nan
attr interpolationmode  none
attr title  "the total time spent  by arrived jobs, max"
attr unit  s
scalar WhiteRabbitSwitch6.out6 	totalDelayTime:mean 	nan
attr interpolationmode  none
attr title  "the total time spent in delay nodes by arrived jobs, mean"
attr unit  s
scalar WhiteRabbitSwitch6.out6 	totalDelayTime:max 	nan
attr interpolationmode  none
attr title  "the total time spent in delay nodes by arrived jobs, max"
attr unit  s
scalar WhiteRabbitSwitch6.out6 	totalQueueingTime:mean 	nan
attr interpolationmode  none
attr title  "the total time spent in queues by arrived jobs, mean"
attr unit  s
scalar WhiteRabbitSwitch6.out6 	totalQueueingTime:max 	nan
attr interpolationmode  none
attr title  "the total time spent in queues by arrived jobs, max"
attr unit  s
scalar WhiteRabbitSwitch6.out6 	lifeTime:mean 	nan
attr interpolationmode  none
attr title  "lifetime of arrived jobs, mean"
attr unit  s
scalar WhiteRabbitSwitch6.out6 	lifeTime:max 	nan
attr interpolationmode  none
attr title  "lifetime of arrived jobs, max"
attr unit  s
scalar WhiteRabbitSwitch6.out7 	generation:mean 	0
attr interpolationmode  none
attr title  "the generation of the arrived jobs, mean"
scalar WhiteRabbitSwitch6.out7 	generation:max 	0
attr interpolationmode  none
attr title  "the generation of the arrived jobs, max"
scalar WhiteRabbitSwitch6.out7 	delaysVisited:mean 	0
attr interpolationmode  none
attr title  "the total number of delays visited by arrived jobs, mean"
scalar WhiteRabbitSwitch6.out7 	delaysVisited:max 	0
attr interpolationmode  none
attr title  "the total number of delays visited by arrived jobs, max"
scalar WhiteRabbitSwitch6.out7 	queuesVisited:mean 	0
attr interpolationmode  none
attr title  "the total number of queues visited by arrived jobs, mean"
scalar WhiteRabbitSwitch6.out7 	queuesVisited:max 	0
attr interpolationmode  none
attr title  "the total number of queues visited by arrived jobs, max"
scalar WhiteRabbitSwitch6.out7 	totalServiceTime:mean 	0
attr interpolationmode  none
attr title  "the total time spent  by arrived jobs, mean"
attr unit  s
scalar WhiteRabbitSwitch6.out7 	totalServiceTime:max 	0
attr interpolationmode  none
attr title  "the total time spent  by arrived jobs, max"
attr unit  s
scalar WhiteRabbitSwitch6.out7 	totalDelayTime:mean 	0
attr interpolationmode  none
attr title  "the total time spent in delay nodes by arrived jobs, mean"
attr unit  s
scalar WhiteRabbitSwitch6.out7 	totalDelayTime:max 	0
attr interpolationmode  none
attr title  "the total time spent in delay nodes by arrived jobs, max"
attr unit  s
scalar WhiteRabbitSwitch6.out7 	totalQueueingTime:mean 	0
attr interpolationmode  none
attr title  "the total time spent in queues by arrived jobs, mean"
attr unit  s
scalar WhiteRabbitSwitch6.out7 	totalQueueingTime:max 	0
attr interpolationmode  none
attr title  "the total time spent in queues by arrived jobs, max"
attr unit  s
scalar WhiteRabbitSwitch6.out7 	lifeTime:mean 	0
attr interpolationmode  none
attr title  "lifetime of arrived jobs, mean"
attr unit  s
scalar WhiteRabbitSwitch6.out7 	lifeTime:max 	0
attr interpolationmode  none
attr title  "lifetime of arrived jobs, max"
attr unit  s
scalar WhiteRabbitSwitch6.wrQueue1 	busy:timeavg 	0
attr interpolationmode  sample-hold
attr title  "server busy state, timeavg"
scalar WhiteRabbitSwitch6.wrQueue1 	queueingTime:mean 	0
attr interpolationmode  none
attr title  "queueing time at dequeue, mean"
attr unit  s
scalar WhiteRabbitSwitch6.wrQueue1 	queueingTime:max 	0
attr interpolationmode  none
attr title  "queueing time at dequeue, max"
attr unit  s
scalar WhiteRabbitSwitch6.wrQueue1 	queueLength:timeavg 	0
attr interpolationmode  sample-hold
attr title  "queue length, timeavg"
scalar WhiteRabbitSwitch6.wrQueue1 	queueLength:max 	2
attr interpolationmode  sample-hold
attr title  "queue length, max"
scalar WhiteRabbitSwitch6.wrQueue1 	dropped:count 	0
attr interpolationmode  none
attr title  "drop event, count"
scalar WhiteRabbitSwitch6.wrQueue2 	busy:timeavg 	0
attr interpolationmode  sample-hold
attr title  "server busy state, timeavg"
scalar WhiteRabbitSwitch6.wrQueue2 	queueingTime:mean 	0
attr interpolationmode  none
attr title  "queueing time at dequeue, mean"
attr unit  s
scalar WhiteRabbitSwitch6.wrQueue2 	queueingTime:max 	0
attr interpolationmode  none
attr title  "queueing time at dequeue, max"
attr unit  s
scalar WhiteRabbitSwitch6.wrQueue2 	queueLength:timeavg 	0
attr interpolationmode  sample-hold
attr title  "queue length, timeavg"
scalar WhiteRabbitSwitch6.wrQueue2 	queueLength:max 	2
attr interpolationmode  sample-hold
attr title  "queue length, max"
scalar WhiteRabbitSwitch6.wrQueue2 	dropped:count 	0
attr interpolationmode  none
attr title  "drop event, count"
scalar WhiteRabbitSwitch6.wrQueue3 	busy:timeavg 	0
attr interpolationmode  sample-hold
attr title  "server busy state, timeavg"
scalar WhiteRabbitSwitch6.wrQueue3 	queueingTime:mean 	0
attr interpolationmode  none
attr title  "queueing time at dequeue, mean"
attr unit  s
scalar WhiteRabbitSwitch6.wrQueue3 	queueingTime:max 	0
attr interpolationmode  none
attr title  "queueing time at dequeue, max"
attr unit  s
scalar WhiteRabbitSwitch6.wrQueue3 	queueLength:timeavg 	0
attr interpolationmode  sample-hold
attr title  "queue length, timeavg"
scalar WhiteRabbitSwitch6.wrQueue3 	queueLength:max 	2
attr interpolationmode  sample-hold
attr title  "queue length, max"
scalar WhiteRabbitSwitch6.wrQueue3 	dropped:count 	0
attr interpolationmode  none
attr title  "drop event, count"
scalar WhiteRabbitSwitch6.wrQueue4 	busy:timeavg 	0
attr interpolationmode  sample-hold
attr title  "server busy state, timeavg"
scalar WhiteRabbitSwitch6.wrQueue4 	queueingTime:mean 	0
attr interpolationmode  none
attr title  "queueing time at dequeue, mean"
attr unit  s
scalar WhiteRabbitSwitch6.wrQueue4 	queueingTime:max 	0
attr interpolationmode  none
attr title  "queueing time at dequeue, max"
attr unit  s
scalar WhiteRabbitSwitch6.wrQueue4 	queueLength:timeavg 	0
attr interpolationmode  sample-hold
attr title  "queue length, timeavg"
scalar WhiteRabbitSwitch6.wrQueue4 	queueLength:max 	2
attr interpolationmode  sample-hold
attr title  "queue length, max"
scalar WhiteRabbitSwitch6.wrQueue4 	dropped:count 	0
attr interpolationmode  none
attr title  "drop event, count"
scalar WhiteRabbitSwitch6.wrQueue5 	busy:timeavg 	0
attr interpolationmode  sample-hold
attr title  "server busy state, timeavg"
scalar WhiteRabbitSwitch6.wrQueue5 	queueingTime:mean 	0
attr interpolationmode  none
attr title  "queueing time at dequeue, mean"
attr unit  s
scalar WhiteRabbitSwitch6.wrQueue5 	queueingTime:max 	0
attr interpolationmode  none
attr title  "queueing time at dequeue, max"
attr unit  s
scalar WhiteRabbitSwitch6.wrQueue5 	queueLength:timeavg 	0
attr interpolationmode  sample-hold
attr title  "queue length, timeavg"
scalar WhiteRabbitSwitch6.wrQueue5 	queueLength:max 	2
attr interpolationmode  sample-hold
attr title  "queue length, max"
scalar WhiteRabbitSwitch6.wrQueue5 	dropped:count 	0
attr interpolationmode  none
attr title  "drop event, count"
scalar WhiteRabbitSwitch6.wrQueue6 	busy:timeavg 	0
attr interpolationmode  sample-hold
attr title  "server busy state, timeavg"
scalar WhiteRabbitSwitch6.wrQueue6 	queueingTime:mean 	0
attr interpolationmode  none
attr title  "queueing time at dequeue, mean"
attr unit  s
scalar WhiteRabbitSwitch6.wrQueue6 	queueingTime:max 	0
attr interpolationmode  none
attr title  "queueing time at dequeue, max"
attr unit  s
scalar WhiteRabbitSwitch6.wrQueue6 	queueLength:timeavg 	0
attr interpolationmode  sample-hold
attr title  "queue length, timeavg"
scalar WhiteRabbitSwitch6.wrQueue6 	queueLength:max 	2
attr interpolationmode  sample-hold
attr title  "queue length, max"
scalar WhiteRabbitSwitch6.wrQueue6 	dropped:count 	0
attr interpolationmode  none
attr title  "drop event, count"
scalar WhiteRabbitSwitch6.wrQueue7 	busy:timeavg 	0
attr interpolationmode  sample-hold
attr title  "server busy state, timeavg"
scalar WhiteRabbitSwitch6.wrQueue7 	queueingTime:mean 	0
attr interpolationmode  none
attr title  "queueing time at dequeue, mean"
attr unit  s
scalar WhiteRabbitSwitch6.wrQueue7 	queueingTime:max 	0
attr interpolationmode  none
attr title  "queueing time at dequeue, max"
attr unit  s
scalar WhiteRabbitSwitch6.wrQueue7 	queueLength:timeavg 	0
attr interpolationmode  sample-hold
attr title  "queue length, timeavg"
scalar WhiteRabbitSwitch6.wrQueue7 	queueLength:max 	2
attr interpolationmode  sample-hold
attr title  "queue length, max"
scalar WhiteRabbitSwitch6.wrQueue7 	dropped:count 	0
attr interpolationmode  none
attr title  "drop event, count"
scalar WhiteRabbitSwitch6.trigger 	created:count 	1
attr interpolationmode  none
attr title  "the number of jobs created, count"
