version 2
run WRS1-0-20120510-07:52:02-7249
attr configname WRS1
attr datetime 20120510-07:52:02
attr experiment WRS1
attr inifile omnetpp.ini
attr iterationvars ""
attr iterationvars2 $repetition=0
attr measurement ""
attr network WRS1
attr processid 7249
attr repetition 0
attr replication #0
attr resultdir results
attr runnumber 0
attr seedset 0

scalar WRS1.source 	created:count 	1
attr interpolationmode  none
attr title  "the number of packets created, count"
scalar WRS1.passiveQueue0 	queueingTime:mean 	nan
attr interpolationmode  none
attr title  "queueing time at dequeue, mean"
attr unit  s
scalar WRS1.passiveQueue0 	queueingTime:max 	nan
attr interpolationmode  none
attr title  "queueing time at dequeue, max"
attr unit  s
scalar WRS1.passiveQueue0 	queueLength:timeavg 	0
attr interpolationmode  sample-hold
attr title  "queue length, timeavg"
scalar WRS1.passiveQueue0 	queueLength:max 	0
attr interpolationmode  sample-hold
attr title  "queue length, max"
scalar WRS1.passiveQueue0 	dropped:count 	0
attr interpolationmode  none
attr title  "drop event, count"
scalar WRS1.passiveQueue1 	queueingTime:mean 	nan
attr interpolationmode  none
attr title  "queueing time at dequeue, mean"
attr unit  s
scalar WRS1.passiveQueue1 	queueingTime:max 	nan
attr interpolationmode  none
attr title  "queueing time at dequeue, max"
attr unit  s
scalar WRS1.passiveQueue1 	queueLength:timeavg 	0
attr interpolationmode  sample-hold
attr title  "queue length, timeavg"
scalar WRS1.passiveQueue1 	queueLength:max 	0
attr interpolationmode  sample-hold
attr title  "queue length, max"
scalar WRS1.passiveQueue1 	dropped:count 	0
attr interpolationmode  none
attr title  "drop event, count"
scalar WRS1.passiveQueue2 	queueingTime:mean 	nan
attr interpolationmode  none
attr title  "queueing time at dequeue, mean"
attr unit  s
scalar WRS1.passiveQueue2 	queueingTime:max 	nan
attr interpolationmode  none
attr title  "queueing time at dequeue, max"
attr unit  s
scalar WRS1.passiveQueue2 	queueLength:timeavg 	0
attr interpolationmode  sample-hold
attr title  "queue length, timeavg"
scalar WRS1.passiveQueue2 	queueLength:max 	0
attr interpolationmode  sample-hold
attr title  "queue length, max"
scalar WRS1.passiveQueue2 	dropped:count 	0
attr interpolationmode  none
attr title  "drop event, count"
scalar WRS1.passiveQueue3 	queueingTime:mean 	nan
attr interpolationmode  none
attr title  "queueing time at dequeue, mean"
attr unit  s
scalar WRS1.passiveQueue3 	queueingTime:max 	nan
attr interpolationmode  none
attr title  "queueing time at dequeue, max"
attr unit  s
scalar WRS1.passiveQueue3 	queueLength:timeavg 	0
attr interpolationmode  sample-hold
attr title  "queue length, timeavg"
scalar WRS1.passiveQueue3 	queueLength:max 	0
attr interpolationmode  sample-hold
attr title  "queue length, max"
scalar WRS1.passiveQueue3 	dropped:count 	0
attr interpolationmode  none
attr title  "drop event, count"
scalar WRS1.server 	busy:timeavg 	0
attr interpolationmode  sample-hold
attr title  "server busy state, timeavg"
scalar WRS1.sink 	generation:mean 	0
attr interpolationmode  none
attr title  "the generation of the arrived packets, mean"
scalar WRS1.sink 	generation:max 	0
attr interpolationmode  none
attr title  "the generation of the arrived packets, max"
scalar WRS1.sink 	delaysVisited:mean 	0
attr interpolationmode  none
attr title  "the total number of delays visited by arrived packets, mean"
scalar WRS1.sink 	delaysVisited:max 	0
attr interpolationmode  none
attr title  "the total number of delays visited by arrived packets, max"
scalar WRS1.sink 	queuesVisited:mean 	0
attr interpolationmode  none
attr title  "the total number of queues visited by arrived packets, mean"
scalar WRS1.sink 	queuesVisited:max 	0
attr interpolationmode  none
attr title  "the total number of queues visited by arrived packets, max"
scalar WRS1.sink 	totalServiceTime:mean 	0
attr interpolationmode  none
attr title  "the total time spent  by arrived packets, mean"
attr unit  s
scalar WRS1.sink 	totalServiceTime:max 	0
attr interpolationmode  none
attr title  "the total time spent  by arrived packets, max"
attr unit  s
scalar WRS1.sink 	totalDelayTime:mean 	0
attr interpolationmode  none
attr title  "the total time spent in delay nodes by arrived packets, mean"
attr unit  s
scalar WRS1.sink 	totalDelayTime:max 	0
attr interpolationmode  none
attr title  "the total time spent in delay nodes by arrived packets, max"
attr unit  s
scalar WRS1.sink 	totalQueueingTime:mean 	0
attr interpolationmode  none
attr title  "the total time spent in queues by arrived packets, mean"
attr unit  s
scalar WRS1.sink 	totalQueueingTime:max 	0
attr interpolationmode  none
attr title  "the total time spent in queues by arrived packets, max"
attr unit  s
scalar WRS1.sink 	lifeTime:mean 	0.00010115702661096
attr interpolationmode  none
attr title  "lifetime of arrived packets, mean"
attr unit  s
scalar WRS1.sink 	lifeTime:max 	0.000713
attr interpolationmode  none
attr title  "lifetime of arrived packets, max"
attr unit  s
scalar WRS1.sink 	lifeTime7:mean 	1.2999999999999e-05
attr interpolationmode  none
attr title  "lifetime of arrived packets prio 7, mean"
attr unit  s
scalar WRS1.sink 	lifeTime7:max 	1.3e-05
attr interpolationmode  none
attr title  "lifetime of arrived packets prio 7, max"
attr unit  s
scalar WRS1.sink 	lifeTime6:mean 	0.00033379207920792
attr interpolationmode  none
attr title  "lifetime of arrived packets prio 6, mean"
attr unit  s
scalar WRS1.sink 	lifeTime6:max 	0.000713
attr interpolationmode  none
attr title  "lifetime of arrived packets prio 6, max"
attr unit  s
scalar WRS1.sink 	lifeTime5:mean 	0.00023379207920792
attr interpolationmode  none
attr title  "lifetime of arrived packets prio 5, mean"
attr unit  s
scalar WRS1.sink 	lifeTime5:max 	0.000613
attr interpolationmode  none
attr title  "lifetime of arrived packets prio 5, max"
attr unit  s
scalar WRS1.sink 	lifeTime4:mean 	0.00013379207920792
attr interpolationmode  none
attr title  "lifetime of arrived packets prio 4, mean"
attr unit  s
scalar WRS1.sink 	lifeTime4:max 	0.000513
attr interpolationmode  none
attr title  "lifetime of arrived packets prio 4, max"
attr unit  s
scalar WRS1.sink 	lifeTime3:mean 	0.00014046331236897
attr interpolationmode  none
attr title  "lifetime of arrived packets prio 3, mean"
attr unit  s
scalar WRS1.sink 	lifeTime3:max 	0.000613
attr interpolationmode  none
attr title  "lifetime of arrived packets prio 3, max"
attr unit  s
scalar WRS1.sink 	lifeTime2:mean 	0.00023281424148607
attr interpolationmode  none
attr title  "lifetime of arrived packets prio 2, mean"
attr unit  s
scalar WRS1.sink 	lifeTime2:max 	0.000613
attr interpolationmode  none
attr title  "lifetime of arrived packets prio 2, max"
attr unit  s
scalar WRS1.sink 	lifeTime1:mean 	0.00013281424148607
attr interpolationmode  none
attr title  "lifetime of arrived packets prio 1, mean"
attr unit  s
scalar WRS1.sink 	lifeTime1:max 	0.000513
attr interpolationmode  none
attr title  "lifetime of arrived packets prio 1, max"
attr unit  s
scalar WRS1.sink 	lifeTime0:mean 	0.00013226229508197
attr interpolationmode  none
attr title  "lifetime of arrived packets prio 0, mean"
attr unit  s
scalar WRS1.sink 	lifeTime0:max 	0.000613
attr interpolationmode  none
attr title  "lifetime of arrived packets prio 0, max"
attr unit  s
scalar WRS1.passiveQueue4 	queueingTime:mean 	nan
attr interpolationmode  none
attr title  "queueing time at dequeue, mean"
attr unit  s
scalar WRS1.passiveQueue4 	queueingTime:max 	nan
attr interpolationmode  none
attr title  "queueing time at dequeue, max"
attr unit  s
scalar WRS1.passiveQueue4 	queueLength:timeavg 	0
attr interpolationmode  sample-hold
attr title  "queue length, timeavg"
scalar WRS1.passiveQueue4 	queueLength:max 	0
attr interpolationmode  sample-hold
attr title  "queue length, max"
scalar WRS1.passiveQueue4 	dropped:count 	0
attr interpolationmode  none
attr title  "drop event, count"
scalar WRS1.passiveQueue5 	queueingTime:mean 	nan
attr interpolationmode  none
attr title  "queueing time at dequeue, mean"
attr unit  s
scalar WRS1.passiveQueue5 	queueingTime:max 	nan
attr interpolationmode  none
attr title  "queueing time at dequeue, max"
attr unit  s
scalar WRS1.passiveQueue5 	queueLength:timeavg 	0
attr interpolationmode  sample-hold
attr title  "queue length, timeavg"
scalar WRS1.passiveQueue5 	queueLength:max 	0
attr interpolationmode  sample-hold
attr title  "queue length, max"
scalar WRS1.passiveQueue5 	dropped:count 	0
attr interpolationmode  none
attr title  "drop event, count"
scalar WRS1.passiveQueue6 	queueingTime:mean 	nan
attr interpolationmode  none
attr title  "queueing time at dequeue, mean"
attr unit  s
scalar WRS1.passiveQueue6 	queueingTime:max 	nan
attr interpolationmode  none
attr title  "queueing time at dequeue, max"
attr unit  s
scalar WRS1.passiveQueue6 	queueLength:timeavg 	0
attr interpolationmode  sample-hold
attr title  "queue length, timeavg"
scalar WRS1.passiveQueue6 	queueLength:max 	0
attr interpolationmode  sample-hold
attr title  "queue length, max"
scalar WRS1.passiveQueue6 	dropped:count 	0
attr interpolationmode  none
attr title  "drop event, count"
scalar WRS1.passiveQueue7 	queueingTime:mean 	nan
attr interpolationmode  none
attr title  "queueing time at dequeue, mean"
attr unit  s
scalar WRS1.passiveQueue7 	queueingTime:max 	nan
attr interpolationmode  none
attr title  "queueing time at dequeue, max"
attr unit  s
scalar WRS1.passiveQueue7 	queueLength:timeavg 	0
attr interpolationmode  sample-hold
attr title  "queue length, timeavg"
scalar WRS1.passiveQueue7 	queueLength:max 	0
attr interpolationmode  sample-hold
attr title  "queue length, max"
scalar WRS1.passiveQueue7 	dropped:count 	0
attr interpolationmode  none
attr title  "drop event, count"
scalar WRS1.trigger 	created:count 	1
attr interpolationmode  none
attr title  "the number of packets created, count"
scalar WRS1.ignore 	generation:mean 	nan
attr interpolationmode  none
attr title  "the generation of the arrived packets, mean"
scalar WRS1.ignore 	generation:max 	nan
attr interpolationmode  none
attr title  "the generation of the arrived packets, max"
scalar WRS1.ignore 	delaysVisited:mean 	nan
attr interpolationmode  none
attr title  "the total number of delays visited by arrived packets, mean"
scalar WRS1.ignore 	delaysVisited:max 	nan
attr interpolationmode  none
attr title  "the total number of delays visited by arrived packets, max"
scalar WRS1.ignore 	queuesVisited:mean 	nan
attr interpolationmode  none
attr title  "the total number of queues visited by arrived packets, mean"
scalar WRS1.ignore 	queuesVisited:max 	nan
attr interpolationmode  none
attr title  "the total number of queues visited by arrived packets, max"
scalar WRS1.ignore 	totalServiceTime:mean 	nan
attr interpolationmode  none
attr title  "the total time spent  by arrived packets, mean"
attr unit  s
scalar WRS1.ignore 	totalServiceTime:max 	nan
attr interpolationmode  none
attr title  "the total time spent  by arrived packets, max"
attr unit  s
scalar WRS1.ignore 	totalDelayTime:mean 	nan
attr interpolationmode  none
attr title  "the total time spent in delay nodes by arrived packets, mean"
attr unit  s
scalar WRS1.ignore 	totalDelayTime:max 	nan
attr interpolationmode  none
attr title  "the total time spent in delay nodes by arrived packets, max"
attr unit  s
scalar WRS1.ignore 	totalQueueingTime:mean 	nan
attr interpolationmode  none
attr title  "the total time spent in queues by arrived packets, mean"
attr unit  s
scalar WRS1.ignore 	totalQueueingTime:max 	nan
attr interpolationmode  none
attr title  "the total time spent in queues by arrived packets, max"
attr unit  s
scalar WRS1.ignore 	lifeTime:mean 	nan
attr interpolationmode  none
attr title  "lifetime of arrived packets, mean"
attr unit  s
scalar WRS1.ignore 	lifeTime:max 	nan
attr interpolationmode  none
attr title  "lifetime of arrived packets, max"
attr unit  s
scalar WRS1.ignore 	lifeTime7:mean 	nan
attr interpolationmode  none
attr title  "lifetime of arrived packets prio 7, mean"
attr unit  s
scalar WRS1.ignore 	lifeTime7:max 	nan
attr interpolationmode  none
attr title  "lifetime of arrived packets prio 7, max"
attr unit  s
scalar WRS1.ignore 	lifeTime6:mean 	nan
attr interpolationmode  none
attr title  "lifetime of arrived packets prio 6, mean"
attr unit  s
scalar WRS1.ignore 	lifeTime6:max 	nan
attr interpolationmode  none
attr title  "lifetime of arrived packets prio 6, max"
attr unit  s
scalar WRS1.ignore 	lifeTime5:mean 	nan
attr interpolationmode  none
attr title  "lifetime of arrived packets prio 5, mean"
attr unit  s
scalar WRS1.ignore 	lifeTime5:max 	nan
attr interpolationmode  none
attr title  "lifetime of arrived packets prio 5, max"
attr unit  s
scalar WRS1.ignore 	lifeTime4:mean 	nan
attr interpolationmode  none
attr title  "lifetime of arrived packets prio 4, mean"
attr unit  s
scalar WRS1.ignore 	lifeTime4:max 	nan
attr interpolationmode  none
attr title  "lifetime of arrived packets prio 4, max"
attr unit  s
scalar WRS1.ignore 	lifeTime3:mean 	nan
attr interpolationmode  none
attr title  "lifetime of arrived packets prio 3, mean"
attr unit  s
scalar WRS1.ignore 	lifeTime3:max 	nan
attr interpolationmode  none
attr title  "lifetime of arrived packets prio 3, max"
attr unit  s
scalar WRS1.ignore 	lifeTime2:mean 	nan
attr interpolationmode  none
attr title  "lifetime of arrived packets prio 2, mean"
attr unit  s
scalar WRS1.ignore 	lifeTime2:max 	nan
attr interpolationmode  none
attr title  "lifetime of arrived packets prio 2, max"
attr unit  s
scalar WRS1.ignore 	lifeTime1:mean 	nan
attr interpolationmode  none
attr title  "lifetime of arrived packets prio 1, mean"
attr unit  s
scalar WRS1.ignore 	lifeTime1:max 	nan
attr interpolationmode  none
attr title  "lifetime of arrived packets prio 1, max"
attr unit  s
scalar WRS1.ignore 	lifeTime0:mean 	nan
attr interpolationmode  none
attr title  "lifetime of arrived packets prio 0, mean"
attr unit  s
scalar WRS1.ignore 	lifeTime0:max 	nan
attr interpolationmode  none
attr title  "lifetime of arrived packets prio 0, max"
attr unit  s
