version 2
run FifoWRS-0-20120217-13:49:58-26429
attr configname FifoWRS
attr datetime 20120217-13:49:58
attr experiment FifoWRS
attr inifile omnetpp.ini
attr iterationvars ""
attr iterationvars2 $repetition=0
attr measurement ""
attr network FifoNetWRS
attr processid 26429
attr repetition 0
attr replication #0
attr resultdir results
attr runnumber 0
attr seedset 0

scalar FifoNetWRS.sink0 	lifetime:mean 	5.0248383352678e-05
attr interpolationmode  none
attr title  "lifetime of arrived jobs, mean"
attr unit  s
scalar FifoNetWRS.sink0 	lifetime:max 	9.6e-05
attr interpolationmode  none
attr title  "lifetime of arrived jobs, max"
attr unit  s
scalar FifoNetWRS.sink1 	lifetime:mean 	4.972104484968e-05
attr interpolationmode  none
attr title  "lifetime of arrived jobs, mean"
attr unit  s
scalar FifoNetWRS.sink1 	lifetime:max 	9.6e-05
attr interpolationmode  none
attr title  "lifetime of arrived jobs, max"
attr unit  s
scalar FifoNetWRS.sink2 	lifetime:mean 	5.0121041286686e-05
attr interpolationmode  none
attr title  "lifetime of arrived jobs, mean"
attr unit  s
scalar FifoNetWRS.sink2 	lifetime:max 	9.6e-05
attr interpolationmode  none
attr title  "lifetime of arrived jobs, max"
attr unit  s
scalar FifoNetWRS.sink3 	lifetime:mean 	5.0111570931965e-05
attr interpolationmode  none
attr title  "lifetime of arrived jobs, mean"
attr unit  s
scalar FifoNetWRS.sink3 	lifetime:max 	9.6e-05
attr interpolationmode  none
attr title  "lifetime of arrived jobs, max"
attr unit  s
scalar FifoNetWRS.sink4 	lifetime:mean 	5.0331255265375e-05
attr interpolationmode  none
attr title  "lifetime of arrived jobs, mean"
attr unit  s
scalar FifoNetWRS.sink4 	lifetime:max 	9.6e-05
attr interpolationmode  none
attr title  "lifetime of arrived jobs, max"
attr unit  s
scalar FifoNetWRS.sink5 	lifetime:mean 	5.0135915845718e-05
attr interpolationmode  none
attr title  "lifetime of arrived jobs, mean"
attr unit  s
scalar FifoNetWRS.sink5 	lifetime:max 	9.6e-05
attr interpolationmode  none
attr title  "lifetime of arrived jobs, max"
attr unit  s
scalar FifoNetWRS.sink6 	lifetime:mean 	1.2e-05
attr interpolationmode  none
attr title  "lifetime of arrived jobs, mean"
attr unit  s
scalar FifoNetWRS.sink6 	lifetime:max 	1.2e-05
attr interpolationmode  none
attr title  "lifetime of arrived jobs, max"
attr unit  s
scalar FifoNetWRS.sink7 	lifetime:mean 	2.6501976284585e-05
attr interpolationmode  none
attr title  "lifetime of arrived jobs, mean"
attr unit  s
scalar FifoNetWRS.sink7 	lifetime:max 	9.6e-05
attr interpolationmode  none
attr title  "lifetime of arrived jobs, max"
attr unit  s
scalar FifoNetWRS.wrs 	queueingTime:mean 	3.7412127729203e-05
attr interpolationmode  none
attr title  "queueing time at dequeue, mean"
attr unit  s
scalar FifoNetWRS.wrs 	queueingTime:max 	8.4e-05
attr interpolationmode  none
attr title  "queueing time at dequeue, max"
attr unit  s
scalar FifoNetWRS.wrs 	busy:timeavg 	0.0085555999999994
attr interpolationmode  sample-hold
attr title  "server busy state, timeavg"
scalar FifoNetWRS.wrs 	qlen:timeavg 	0.026673599999997
attr interpolationmode  sample-hold
attr title  "queue length, timeavg"
scalar FifoNetWRS.wrs 	qlen:max 	7
attr interpolationmode  sample-hold
attr title  "queue length, max"
