version 2
run FifoWRS-0-20120220-16:26:33-7288
attr configname FifoWRS
attr datetime 20120220-16:26:33
attr experiment FifoWRS
attr inifile omnetpp.ini
attr iterationvars ""
attr iterationvars2 $repetition=0
attr measurement ""
attr network FifoNetWRS
attr processid 7288
attr repetition 0
attr replication #0
attr resultdir results
attr runnumber 0
attr seedset 0

scalar FifoNetWRS.sink0 	lifetime:mean 	0.00225
attr interpolationmode  none
attr title  "lifetime of arrived jobs, mean"
attr unit  s
scalar FifoNetWRS.sink0 	lifetime:max 	0.004
attr interpolationmode  none
attr title  "lifetime of arrived jobs, max"
attr unit  s
scalar FifoNetWRS.wrs 	queueingTime:mean 	0.00175
attr interpolationmode  none
attr title  "queueing time at dequeue, mean"
attr unit  s
scalar FifoNetWRS.wrs 	queueingTime:max 	0.0035
attr interpolationmode  none
attr title  "queueing time at dequeue, max"
attr unit  s
scalar FifoNetWRS.wrs 	busy:timeavg 	0.4
attr interpolationmode  sample-hold
attr title  "server busy state, timeavg"
scalar FifoNetWRS.wrs 	qlen:timeavg 	1.4
attr interpolationmode  sample-hold
attr title  "queue length, timeavg"
scalar FifoNetWRS.wrs 	qlen:max 	7
attr interpolationmode  sample-hold
attr title  "queue length, max"
scalar FifoNetWRS.wrs1 	queueingTime:mean 	nan
attr interpolationmode  none
attr title  "queueing time at dequeue, mean"
attr unit  s
scalar FifoNetWRS.wrs1 	queueingTime:max 	nan
attr interpolationmode  none
attr title  "queueing time at dequeue, max"
attr unit  s
scalar FifoNetWRS.wrs1 	busy:timeavg 	0
attr interpolationmode  sample-hold
attr title  "server busy state, timeavg"
scalar FifoNetWRS.wrs1 	qlen:timeavg 	0
attr interpolationmode  sample-hold
attr title  "queue length, timeavg"
scalar FifoNetWRS.wrs1 	qlen:max 	0
attr interpolationmode  sample-hold
attr title  "queue length, max"
