version 2
run General-0-20120214-13:58:29-30573
attr configname General
attr datetime 20120214-13:58:29
attr experiment General
attr inifile omnetpp.ini
attr iterationvars ""
attr iterationvars2 $repetition=0
attr measurement ""
attr network FifoNet
attr processid 30573
attr repetition 0
attr replication #0
attr resultdir results
attr runnumber 0
attr seedset 0

scalar FifoNet.fifo 	queueingTime:mean 	0
attr interpolationmode  none
attr title  "queueing time at dequeue, mean"
attr unit  s
scalar FifoNet.fifo 	queueingTime:max 	0
attr interpolationmode  none
attr title  "queueing time at dequeue, max"
attr unit  s
scalar FifoNet.fifo 	busy:timeavg 	nan
attr interpolationmode  sample-hold
attr title  "server busy state, timeavg"
scalar FifoNet.fifo 	qlen:timeavg 	nan
attr interpolationmode  sample-hold
attr title  "queue length, timeavg"
scalar FifoNet.fifo 	qlen:max 	37
attr interpolationmode  sample-hold
attr title  "queue length, max"
scalar FifoNet.sink 	lifetime:mean 	nan
attr interpolationmode  none
attr title  "lifetime of arrived jobs, mean"
attr unit  s
scalar FifoNet.sink 	lifetime:max 	nan
attr interpolationmode  none
attr title  "lifetime of arrived jobs, max"
attr unit  s
